Version 4.1
SHEET 1 1416 680
WIRE 1232 -64 1088 -64
WIRE 896 0 720 0
WIRE 256 64 64 64
WIRE 384 64 320 64
WIRE 400 64 384 64
WIRE 64 96 64 64
WIRE 400 96 400 64
WIRE 1152 144 992 144
WIRE 784 192 672 192
WIRE 1088 192 1088 -64
WIRE 64 208 64 176
WIRE 400 208 400 176
WIRE 400 208 64 208
WIRE 720 208 720 0
WIRE 992 208 992 144
WIRE 1056 208 992 208
WIRE 672 224 672 192
WIRE 688 224 672 224
WIRE 1152 224 1152 144
WIRE 1152 224 1120 224
WIRE 1216 224 1152 224
WIRE 1328 224 1296 224
WIRE 1360 224 1328 224
WIRE 784 240 784 192
WIRE 784 240 752 240
WIRE 864 240 784 240
WIRE 944 240 928 240
WIRE 992 240 944 240
WIRE 1056 240 992 240
WIRE 688 256 576 256
WIRE 576 272 576 256
WIRE 192 400 64 400
WIRE 352 400 272 400
WIRE 400 400 352 400
WIRE 720 400 720 272
WIRE 864 400 720 400
WIRE 64 432 64 400
WIRE 400 432 400 400
WIRE 1088 464 1088 256
WIRE 1232 464 1088 464
WIRE 64 544 64 512
WIRE 400 544 400 496
WIRE 400 544 64 544
FLAG 64 208 0
FLAG 64 544 0
FLAG 576 352 0
FLAG 1360 288 0
FLAG 992 320 0
FLAG 1232 16 0
FLAG 1232 544 0
FLAG 944 240 BHPF
FLAG 352 400 LPF
FLAG 384 64 HPF
FLAG 1328 224 BLPF
FLAG 896 80 0
FLAG 864 480 0
SYMBOL voltage 64 80 R0
WINDOW 123 24 124 Left 2
WINDOW 39 0 0 Left 0
SYMATTR InstName V1
SYMATTR Value ""
SYMATTR Value2 AC 1
SYMBOL voltage 64 416 R0
WINDOW 123 24 124 Left 2
WINDOW 39 0 0 Left 0
SYMATTR InstName V2
SYMATTR Value ""
SYMATTR Value2 AC 1
SYMBOL cap 320 48 R90
WINDOW 0 0 32 VBottom 2
WINDOW 3 32 32 VTop 2
SYMATTR InstName C1
SYMATTR Value 1nF
SYMBOL cap 416 496 R180
WINDOW 0 24 56 Left 2
WINDOW 3 24 8 Left 2
SYMATTR InstName C2
SYMATTR Value 1nF
SYMBOL res 288 384 R90
WINDOW 0 0 56 VBottom 2
WINDOW 3 32 56 VTop 2
SYMATTR InstName R1
SYMATTR Value 21.3k
SYMBOL res 416 192 R180
WINDOW 0 36 76 Left 2
WINDOW 3 36 40 Left 2
SYMATTR InstName R2
SYMATTR Value 11k
SYMBOL OpAmps\\UniversalOpAmp 1088 224 R0
SYMATTR InstName U1
SYMBOL voltage 576 256 R0
WINDOW 123 24 124 Left 2
WINDOW 39 0 0 Left 0
SYMATTR InstName V3
SYMATTR Value ""
SYMATTR Value2 AC 1
SYMBOL cap 928 224 R90
WINDOW 0 0 32 VBottom 2
WINDOW 3 32 32 VTop 2
SYMATTR InstName C3
SYMATTR Value 1nF
SYMBOL res 1312 208 R90
WINDOW 0 0 56 VBottom 2
WINDOW 3 32 56 VTop 2
SYMATTR InstName R4
SYMATTR Value 10.68k
SYMBOL cap 1344 224 R0
SYMATTR InstName C4
SYMATTR Value 1nF
SYMBOL res 976 224 R0
SYMATTR InstName R3
SYMATTR Value 22k
SYMBOL voltage 1232 -80 R0
WINDOW 123 0 0 Left 0
WINDOW 39 0 0 Left 0
SYMATTR InstName V4
SYMATTR Value 5
SYMBOL voltage 1232 448 R0
WINDOW 123 0 0 Left 0
WINDOW 39 0 0 Left 0
SYMATTR InstName V5
SYMATTR Value -5
SYMBOL OpAmps\\UniversalOpAmp 720 240 R0
SYMATTR InstName U2
SYMBOL voltage 896 -16 R0
WINDOW 123 0 0 Left 0
WINDOW 39 0 0 Left 0
SYMATTR InstName V6
SYMATTR Value 5
SYMBOL voltage 864 384 R0
WINDOW 123 0 0 Left 0
WINDOW 39 0 0 Left 0
SYMATTR InstName V7
SYMATTR Value -5
TEXT 24 568 Left 2 !.ac dec 100 10 1Meg
